*Heading
** Job name: CrackNotched Model name: Model-1
** Generated by: Abaqus/CAE 6.13-1
*Preprint, echo=NO, model=NO, history=NO, contact=NO
**
** PARTS
**
*Part, name=Part-1
*Node
      1,           1.,  0.499000013
      2,          0.5,  0.499000013
      3,   0.49000001,  0.499000013
      4,   0.49000001,   0.49000001
      5,           1.,   0.49000001
      6,           1.,  0.500999987
      7,           1.,   0.50999999
      8,   0.49000001,   0.50999999
      9,          0.5,  0.500999987
     10,   0.49000001,  0.500999987
     11,  0.449999988,  0.550000012
     12,           1.,  0.550000012
     13,           1.,           1.
     14,           0.,           1.
     15,           0.,  0.500999987
     16,  0.449999988,  0.500999987
     17,  0.449999988,  0.499000013
     18,  0.449999988,  0.449999988
     19,           1.,  0.449999988
     20,           0.,  0.499000013
** ... 44384 like lines cut
*Element, type=CPS6
   1,     1,    23,  2425, 11144, 11145, 11146
   2,  2425,  1047,     1, 11147, 11148, 11146
   3,    23,    24,  2426, 11149, 11150, 11151
   4,  2426,  2425,    23, 11152, 11145, 11151
   5,    24,    25,  2427, 11153, 11154, 11155
   6,  2427,  2426,    24, 11156, 11150, 11155
   7,    25,    26,  2428, 11157, 11158, 11159
   8,  2428,  2427,    25, 11160, 11154, 11159
   9,    26,    27,  2429, 11161, 11162, 11163
  10,  2429,  2428,    26, 11164, 11158, 11163
  11,    27,    28,  2430, 11165, 11166, 11167
  12,  2430,  2429,    27, 11168, 11162, 11167
  13,    28,    29,  2431, 11169, 11170, 11171
  14,  2431,  2430,    28, 11172, 11166, 11171
  15,    29,    30,  2432, 11173, 11174, 11175
  16,  2432,  2431,    29, 11176, 11170, 11175
  17,    30,    31,  2433, 11177, 11178, 11179
  18,  2433,  2432,    30, 11180, 11174, 11179
  19,    31,    32,  2434, 11181, 11182, 11183
  20,  2434,  2433,    31, 11184, 11178, 11183
** ... 22099 like lines cut
*Nset, nset=Set-1, generate
     1,  44404,      1
*Elset, elset=Set-1, generate
     1,  22119,      1
** Section: Section-1
*Solid Section, elset=Set-1, material=Material-1
,
*End Part
**  
**
** ASSEMBLY
**
*Assembly, name=Assembly
**  
*Instance, name=Part-1-1, part=Part-1
*End Instance
**  
*Nset, nset=Set-1, instance=Part-1-1
    21,    22,  2396,  2397,  2398,  2399,  2400,  2401,  2402,  2403,  2404,  2405,  2406,  2407,  2408,  2409
  2410,  2411,  2412,  2413,  2414, 41096, 41098, 41165, 41168, 41181, 41187, 41190, 41192, 41213, 41234, 41257
 41295, 41376, 41883, 41886, 44303, 44307, 44308, 44310, 44349
*Elset, elset=Set-1, instance=Part-1-1
 19873, 19874, 19900, 19901, 19905, 19908, 19909, 19910, 19917, 19924, 19932, 19945, 19973, 20176, 20177, 21966
 21970, 21972, 21974, 22017
*Nset, nset=Set-2, instance=Part-1-1
    20,    21,  2387,  2388,  2389,  2390,  2391,  2392,  2393,  2394,  2395, 41081, 41122, 41154, 41156, 41174
 41189, 41879, 41880, 44288, 44381
*Elset, elset=Set-2, instance=Part-1-1
 19868, 19883, 19896, 19897, 19903, 19909, 20173, 20174, 21946, 22059
*Nset, nset=Set-3, instance=Part-1-1
    14,    15,  2203,  2204,  2205,  2206,  2207,  2208,  2209,  2210,  2211, 30288, 30295, 30297, 30304, 30316
 30319, 30746, 30748, 33544, 33611
*Elset, elset=Set-3, instance=Part-1-1
 12287, 12290, 12291, 12294, 12298, 12299, 12463, 12464, 14436, 14510
*Nset, nset=Set-4, instance=Part-1-1
    13,    14,  2184,  2185,  2186,  2187,  2188,  2189,  2190,  2191,  2192,  2193,  2194,  2195,  2196,  2197
  2198,  2199,  2200,  2201,  2202, 29921, 29925, 30112, 30115, 30127, 30134, 30137, 30165, 30215, 30268, 30318
 30737, 30739, 30742, 33568, 33574, 33575, 33581, 33612, 33619
*Elset, elset=Set-4, instance=Part-1-1
 12159, 12161, 12225, 12226, 12230, 12233, 12234, 12244, 12261, 12280, 12299, 12458, 12460, 12461, 14457, 14461
 14463, 14467, 14514, 14524
*End Assembly
** 
** MATERIALS
** 
*Material, name=Material-1
*Elastic
210., 0.3
** 
** BOUNDARY CONDITIONS
** 
** Name: BC-1 Type: Displacement/Rotation
*Boundary
Set-1, 2, 2
** Name: BC-2 Type: Displacement/Rotation
*Boundary
Set-2, 1, 1
** Name: BC-3 Type: Displacement/Rotation
*Boundary
Set-3, 1, 1
** ----------------------------------------------------------------
** 
** STEP: Step-1
** 
*Step, name=Step-1, nlgeom=NO
*Static, direct
1., 1., 
** 
** BOUNDARY CONDITIONS
** 
** Name: BC-4 Type: Displacement/Rotation
*Boundary
Set-4, 2, 2, 0.005
** 
** OUTPUT REQUESTS
** 
*Restart, write, frequency=0
** 
** FIELD OUTPUT: F-Output-1
** 
*Output, field, variable=PRESELECT
** 
** HISTORY OUTPUT: H-Output-1
** 
*Output, history, variable=PRESELECT
*End Step
